 
 ****************************
 *** Specfem3D MPI Mesher ***
 ****************************
 
 Version: 
 
 
 Planet: Earth
 
 
 There are           56  MPI processes
 Processes are numbered from 0 to           55
 
 There are          128  elements along xi in each chunk
 There are          112  elements along eta in each chunk
 
 There are            8  slices along xi in each chunk
 There are            7  slices along eta in each chunk
 There is a total of           56  slices in each chunk
 There are            1  chunks in the global mesh
 There is a total of           56  slices in the global mesh
 
 NGLLX =            5
 NGLLY =            5
 NGLLZ =            5
 
 Shape functions defined by NGNOD =           27  control nodes
 Surface shape functions defined by NGNOD2D =            9  control nodes
 
 model: s20rts_crust2.0
   incorporating the oceans using equivalent load
   incorporating ellipticity
   incorporating surface topography
   incorporating self-gravitation (Cowling approximation)
   incorporating rotation
   incorporating attenuation using            3  standard linear solids
 
   incorporating 3-D lateral variations in the mantle
   no heterogeneities in the mantle
   incorporating crustal variations
   using one layer only in crust
   incorporating transverse isotropy
   no inner-core anisotropy
   no general mantle anisotropy
 
 Reference radius of the globe used is    6371.00000000000       km
 
 Central cube is at a radius of    1038.00000000000       km
 creating global slice addressing
 
 
 incorporating topography
   topo file            : 
 DATA/topo_bathy/topo_bathy_etopo4_smoothed_window_7.bin
   resolution in minutes:    4.000000    
 
   topography/bathymetry: min/max =        -7747        5507
 
   Elapsed time for reading in seconds =   0.809259003028274     
 
 
   VTK topo output: topo resolution in minutes =    4.000000    
                    samples per degree         =    15.00000    
                    resolution distance        =    7.412995     (km)
                    full globe NLAT =         2700
                               NLON =         5400
                               total number of points NLAT x NLON =     14580000
                    limiting output to samples per degree         =            2
 
   elevations written to file: ./DATABASES_MPI/mesh_topo_bathy.vtk
   min/max =   -7.620563     /   5.493937     (km)
 
 broadcast model: S20RTS
 
 incorporating crustal model: CRUST2.0
 
   Moho crustal thickness (without ice) min/max =    6.650000       75.00000    
  km
 
 
   VTK moho output: resolution =            1 deg
                    NLAT =          180
                    NLON =          360
 
   moho depths written to file: ./DATABASES_MPI/mesh_moho_depth.vtk
   min/max =    6.650005     /   75.00006     (km)
 
   sediment depths written to file: ./DATABASES_MPI/mesh_sediment_depth.vtk
   min/max =   0.0000000E+00 /   17.25628     (km)
 
 attenuation model:
   1D reference model
   model: PREM attenuation
 
 additional mesh optimizations
 
 moho:
   default  4-layer crust
   incorporating element stretching for 3-D moho surface
 
 internal topography 410/660:
   no element stretching for 3-D internal surfaces
 
 
 Radial Meshing parameters:
   NCHUNKS                =            1
 
   CENTER LAT/LON:             68.25000     /  -154.0000    
   GAMMA_ROTATION_AZIMUTH:    0.0000000E+00
 
   CHUNK WIDTH XI/ETA:         10.00000     /   10.00000    
   NEX XI/ETA:                       128 /         112
 
   NER_CRUST:                          4
   NER_80_MOHO:                        3
   NER_220_80:                         8
   NER_400_220:                       11
   NER_600_400:                       13
   NER_670_600:                        0
   NER_771_670:                        0
   NER_TOPDDOUBLEPRIME_771:            0
   NER_CMB_TOPDDOUBLEPRIME:            0
   NER_OUTER_CORE:                     0
   NER_TOP_CENTRAL_CUBE_ICB:           0
   SUPPRESS_CRUSTAL_MESH:    F
 
   R_CENTRAL_CUBE =    1038.000      km
 
 Mesh resolution:
   DT =   3.150000000000000E-002
   Minimum period =    3.860935      (s)
 
   MIN_ATTENUATION_PERIOD =    3.860935    
   MAX_ATTENUATION_PERIOD =    217.1163    
 
 Regional mesh cutoff:
   cut-off depth          =    600.000000000000      (km)
 
 
 
 *******************************************
 creating mesh in region            1
 this region is the crust and mantle
 *******************************************
 
 
 first pass
 
   ...allocating arrays 
 
   ...setting up layers 
 
   ...creating mesh elements 
   creating layer            1 out of            6
     number of regular elements  =          208
   setting tiso flags in mantle model
     16.7%    current clock (NOT elapsed) time is: 13h 58min 22sec
   creating layer            2 out of            6
     number of regular elements  =          144
     number of doubling elements =          128
     33.3%    current clock (NOT elapsed) time is: 13h 58min 22sec
   creating layer            3 out of            6
   creating layer            4 out of            6
     number of regular elements  =          512
     66.7%    current clock (NOT elapsed) time is: 13h 58min 22sec
   creating layer            5 out of            6
     number of regular elements  =           64
     number of doubling elements =          512
     83.3%    current clock (NOT elapsed) time is: 13h 58min 22sec
   creating layer            6 out of            6
     number of regular elements  =         1024
    100.0%    current clock (NOT elapsed) time is: 13h 58min 22sec
   layers done
 
   number of elements (per slice)        =         2592
   total number of elements (all slices) =       145152
 
 
   ...creating global addressing
     total number of points            :       324000
     array memory required per process :    2.47192382812500      MB
     getting global points             : npointot =       324000  nspec = 
        2592
     creating indirect addressing
     ibool ok
 
   ...creating MPI buffers
 
 second pass
 
   ...allocating arrays 
 
   ...setting up layers 
 
   ...creating mesh elements 
   creating layer            1 out of            6
     number of regular elements  =          208
     16.7%    current clock (NOT elapsed) time is: 13h 58min 23sec
   creating layer            2 out of            6
     number of regular elements  =          144
     number of doubling elements =          128
     33.3%    current clock (NOT elapsed) time is: 13h 58min 24sec
   creating layer            3 out of            6
   creating layer            4 out of            6
     number of regular elements  =          512
     66.7%    current clock (NOT elapsed) time is: 13h 58min 25sec
   creating layer            5 out of            6
     number of regular elements  =           64
     number of doubling elements =          512
     83.3%    current clock (NOT elapsed) time is: 13h 58min 26sec
   creating layer            6 out of            6
     number of regular elements  =         1024
    100.0%    current clock (NOT elapsed) time is: 13h 58min 29sec
   layers done
 
   number of elements (per slice)        =         2592
   total number of elements (all slices) =       145152
 
 
   ...fills global mesh points 
 
   ...checking mesh resolution and time step
 
 ----------------------------------
   Verification of mesh parameters:
 ----------------------------------
   Region is crust/mantle
 
   Min Vs =    1.000001      (km/s)
   Max Vp =    10.21607      (km/s)
 
   Max element edge size =    42.65913      (km)
   Min element edge size =    7.340196      (km)
   Max/min ratio =    5.811716    
 
   Max Jacobian eigenvalue ratio =   0.8783323    
   Min Jacobian eigenvalue ratio =   0.1465379    
 
   Minimum period resolved =    9.327896      (s)
   Minimum period resolved (empirical) =    3.860935      (s)
   Maximum suggested time step =   8.9000002E-02  (s)
 
   for DT :   3.1500001E-02  (s)
   Max stability for wave velocities =   0.1936165    
 ----------------------------------
 
   saving vtk mesh files for resolution res_minimum_period...
 
   ...precomputing Jacobian
 
   ...creating chunk buffers
 
 ----- creating chunk buffers -----
 
 There are            8  slices along xi in each chunk
 There are            7  slices along eta in each chunk
 There is a total of           56  slices in each chunk
 There are            1  chunks
 There is a total of           56  slices in all the chunks
 
 There is a total of            8  messages to assemble faces between chunks
 
 
 only one chunk, no need to create chunk buffers
 
 
   ...preparing MPI interfaces
 
 crust/mantle region:
   #max of points in MPI buffers along xi npoin2D_xi =         4549
   #max of array elements transferred npoin2D_xi*NDIM =        13647
 
   #max of points in MPI buffers along eta npoin2D_eta =         4549
   #max of array elements transferred npoin2D_eta*NDIM =        13647
 
 crust mantle MPI:
   maximum interfaces:           8
   MPI addressing maximum interfaces:           8
   MPI addressing : all interfaces okay
 
   total MPI interface points :       908882
   unique MPI interface points:       856130
   maximum valence            :            3
   total unique MPI interface points:      856130
 
 
   ...element inner/outer separation 
 
 for overlapping of communications with calculations:
 
 percentage of edge elements in crust/mantle    20.71759     %
 percentage of volume elements in crust/mantle    79.28241     %
 
 
   ...element mesh coloring 
   mesh coloring:  F
 
   ...creating absorbing boundary arrays
 
   ...creating mass matrix
     updates mass matrix with Stacey boundary corrections
     updates mass matrix with ocean load
 
   ...saving binary files
 
   ...saving mesh files
 
 calculated region volume:   2.5845210E-03
                 top area:   3.0281920E-02
              bottom area:   2.4849124E-02
 
 calculated volume:   2.584520893752574E-003
 
 Repartition of elements in regions:
 ----------------------------------
 
 number of elements in each slice      :         2592
 total number of elements in all slices:       145152
 
  - crust and mantle:    100.0000      %
  - outer core:   0.0000000E+00  %
  - inner core:   0.0000000E+00  %
 
 for some mesh statistics, see comments in file OUTPUT_FILES/values_from_mesher.
 h
 
 Load balancing = 100 % by definition
 
 
 the time step of the solver will be DT =   3.1500001E-02
 
 using single precision for the calculations
 
 smallest and largest possible floating-point numbers are:   1.1754944E-38
  3.4028235E+38
 
 
 Elapsed time for mesh generation and buffer creation in seconds = 
   12.36543    
 Elapsed time for mesh generation and buffer creation in hh:mm:ss =    0 h 00 m 12 s
 
 End of mesh generation
 
